%chk=CONF_1.chk
#P OPT FREQ APFD/6-311+g(2d,p) scrf=(iefpcm,solvent=Methanol)
 
Structure: CONF_1
Calculation: Opt Freq at APFD/6-311+g(2d,p) level
 
0 1
C -0.9189 3.0772 0.5403
C -1.7467 4.0246 1.1222
N -1.5394 5.1889 0.4001
C -0.6108 4.9054 -0.5698
N -0.2164 3.6429 -0.5151
C -0.7283 1.6284 0.9049
C -1.2646 1.3199 2.317
C -1.3523 0.665 -0.1126
C -2.4974 1.0673 -0.8235
C -3.1342 0.2034 -1.7173
C -2.6248 -1.0845 -1.9131
C -1.4857 -1.5177 -1.2171
C -0.8422 -0.6433 -0.3022
C 0.3692 -1.1625 0.441
C -0.9554 -2.9135 -1.445
H 0.3649 1.4676 0.9034
H -2.4391 3.9861 1.9596
H -1.9863 6.0863 0.5731
H -0.2616 5.6557 -1.2793
H -1.0578 0.273 2.5925
H -2.3595 1.4573 2.352
H -0.8032 1.9801 3.0717
H -2.8794 2.0821 -0.6748
H -4.0222 0.5351 -2.2656
H -3.1126 -1.7694 -2.6162
H 1.1553 -1.498 -0.2602
H 0.8218 -0.4154 1.1075
H 0.1109 -2.0414 1.0609
H 0.0834 -2.903 -1.8244
H -0.9401 -3.5072 -0.512
H -1.5738 -3.4564 -2.1779
 
 
