CONF_1
  xed2sdf           3D
 
 31 32  0  0  1  0  0  0  0  0999 V2000
   -0.9189    3.0772    0.5403 C   0  0  0  0  0  0  0  0  0  0  0  0
   -1.7467    4.0246    1.1222 C   0  0  0  0  0  0  0  0  0  0  0  0
   -1.5394    5.1889    0.4001 N   0  0  0  0  0  0  0  0  0  0  0  0
   -0.6108    4.9054   -0.5698 C   0  0  0  0  0  0  0  0  0  0  0  0
   -0.2164    3.6429   -0.5151 N   0  0  0  0  0  0  0  0  0  0  0  0
   -0.7283    1.6284    0.9049 C   0  0  0  0  0  0  0  0  0  0  0  0
   -1.2646    1.3199    2.3170 C   0  0  0  0  0  0  0  0  0  0  0  0
   -1.3523    0.6650   -0.1126 C   0  0  0  0  0  0  0  0  0  0  0  0
   -2.4974    1.0673   -0.8235 C   0  0  0  0  0  0  0  0  0  0  0  0
   -3.1342    0.2034   -1.7173 C   0  0  0  0  0  0  0  0  0  0  0  0
   -2.6248   -1.0845   -1.9131 C   0  0  0  0  0  0  0  0  0  0  0  0
   -1.4857   -1.5177   -1.2171 C   0  0  0  0  0  0  0  0  0  0  0  0
   -0.8422   -0.6433   -0.3022 C   0  0  0  0  0  0  0  0  0  0  0  0
    0.3692   -1.1625    0.4410 C   0  0  0  0  0  0  0  0  0  0  0  0
   -0.9554   -2.9135   -1.4450 C   0  0  0  0  0  0  0  0  0  0  0  0
    0.3649    1.4676    0.9034 H   0  0  0  0  0  0  0  0  0  0  0  0
   -2.4391    3.9861    1.9596 H   0  0  0  0  0  0  0  0  0  0  0  0
   -1.9863    6.0863    0.5731 H   0  0  0  0  0  0  0  0  0  0  0  0
   -0.2616    5.6557   -1.2793 H   0  0  0  0  0  0  0  0  0  0  0  0
   -1.0578    0.2730    2.5925 H   0  0  0  0  0  0  0  0  0  0  0  0
   -2.3595    1.4573    2.3520 H   0  0  0  0  0  0  0  0  0  0  0  0
   -0.8032    1.9801    3.0717 H   0  0  0  0  0  0  0  0  0  0  0  0
   -2.8794    2.0821   -0.6748 H   0  0  0  0  0  0  0  0  0  0  0  0
   -4.0222    0.5351   -2.2656 H   0  0  0  0  0  0  0  0  0  0  0  0
   -3.1126   -1.7694   -2.6162 H   0  0  0  0  0  0  0  0  0  0  0  0
    1.1553   -1.4980   -0.2602 H   0  0  0  0  0  0  0  0  0  0  0  0
    0.8218   -0.4154    1.1075 H   0  0  0  0  0  0  0  0  0  0  0  0
    0.1109   -2.0414    1.0609 H   0  0  0  0  0  0  0  0  0  0  0  0
    0.0834   -2.9030   -1.8244 H   0  0  0  0  0  0  0  0  0  0  0  0
   -0.9401   -3.5072   -0.5120 H   0  0  0  0  0  0  0  0  0  0  0  0
   -1.5738   -3.4564   -2.1779 H   0  0  0  0  0  0  0  0  0  0  0  0
  1  2  2  0
  1  6  1  0
  2  3  1  0
  3  4  1  0
  4  5  2  0
  5  1  1  0
  6  7  1  0
  6  8  1  0
  8  9  2  0
  9 10  1  0
 10 11  2  0
 11 12  1  0
 12 13  2  0
 12 15  1  0
 13  8  1  0
 13 14  1  0
  2 17  1  0
  3 18  1  0
  4 19  1  0
  6 16  1  0
  7 20  1  0
  7 21  1  0
  7 22  1  0
  9 23  1  0
 10 24  1  0
 11 25  1  0
 14 26  1  0
 14 27  1  0
 14 28  1  0
 15 29  1  0
 15 30  1  0
 15 31  1  0
M  END
> <QM_ENERGY>
-614.767815

> <HOMO>
-0.232984

>  <LUMO>
-0.015135

>  <DIPOLE>
4.46

>  <QM_Relative_Energy>
0

>  <Total Formal Charge>
0.0

>  <Molecule>
Dexmedetomidine

>  <Energy>
36.7078

>  <Favorite_cresset>
false

>  <MW_cresset>
200.3

>  <#Atoms_cresset>
15

>  <SlogP_cresset>
3.2

>  <TPSA_cresset>
28.7

>  <Flexibility_cresset>
2

>  <Rof5_cresset>
0

>  <Confs_cresset>
0

>  <Poses_cresset>
0

>  <_cresset_fieldpoints2>
 2
    -5       0.838965       2.831532      -1.415535    -15.5226
    -5      -3.564079      -1.078872       1.202690     -4.9967
    -6       1.069940      -0.923889       3.786933      1.8073
    -6      -2.722726       7.647306      -0.045760      9.4135
    -6      -3.306630       7.508638       0.337070      9.3796
    -6       1.130803      -4.263516       1.080872      2.0058
    -6      -3.488092      -3.550369      -3.450414      2.4120
    -7      -2.568430       3.684355       4.224510     -1.4229
    -7      -3.306587       3.868835      -2.176244     -1.9721
    -7       1.703919       3.542583       2.394180     -1.7226
    -7       2.129411       1.255941       2.882196     -1.7650
    -7      -4.533216       1.619004       1.442759     -2.2683
    -7      -5.086318      -1.363334      -3.868445     -1.0047
    -7      -4.187992      -1.075931      -4.636295     -1.0018
    -7      -3.334386      -1.098606       2.031124     -2.6819
    -7       1.299268      -4.407910       1.081315     -1.3564
    -7       0.738665       2.100832      -2.047909     -2.4635
    -8      -0.578554       0.256878       0.779448      5.7387
    -8      -1.508475       1.613978       0.295485      5.6805
    -8      -0.319991       6.012589      -0.933258      1.3895
    -8      -1.215704       1.569753       0.975472      5.6511
    -8      -1.878182      -0.296040      -0.863569      7.2185
    -8      -0.620735      -1.827447      -0.224871      5.7261

$$$$
